                                  MODFLOW-2000
      U.S. GEOLOGICAL SURVEY MODULAR FINITE-DIFFERENCE GROUND-WATER FLOW MODEL
                           VERSION 1.19.01 03/25/2010


 This model run combines GLOBAL and LIST output into this single file.

 GLOBAL LISTING FILE: "test_trans.out"
                         UNIT    2

 OPENING "test_trans.hed"
 FILE TYPE:DATA   UNIT    3   STATUS:UNKNOWN
 FORMAT:FORMATTED              ACCESS:SEQUENTIAL          
#                                                                                                                                                                                                       
# Global Input Files                                                                                                                                                                                    

 OPENING "test_trans.dis"
 FILE TYPE:DIS   UNIT    8   STATUS:OLD    
 FORMAT:FORMATTED              ACCESS:SEQUENTIAL          
#                                                                                                                                                                                                       
# Flow Process Input Files                                                                                                                                                                              

 OPENING "test_trans.ba6"
 FILE TYPE:BAS6   UNIT    9   STATUS:OLD    
 FORMAT:FORMATTED              ACCESS:SEQUENTIAL          

 OPENING "test_trans.lpf"
 FILE TYPE:LPF   UNIT   10   STATUS:OLD    
 FORMAT:FORMATTED              ACCESS:SEQUENTIAL          

 OPENING "test_trans.oc"
 FILE TYPE:OC   UNIT   11   STATUS:OLD    
 FORMAT:FORMATTED              ACCESS:SEQUENTIAL          

 OPENING "test_trans.chd"
 FILE TYPE:CHD   UNIT   12   STATUS:OLD    
 FORMAT:FORMATTED              ACCESS:SEQUENTIAL          

 OPENING "test_trans.pcg"
 FILE TYPE:PCG   UNIT   13   STATUS:OLD    
 FORMAT:FORMATTED              ACCESS:SEQUENTIAL          

 THE FREE FORMAT OPTION HAS BEEN SELECTED

 DISCRETIZATION INPUT DATA READ FROM UNIT    8
 # MF2K DISCRETIZATION FILE
 #
 #
 # NLAY NROW NCOL NPER TIMEUNITS LENUNITS
    1 LAYERS        10 ROWS        10 COLUMNS
    3 STRESS PERIOD(S) IN SIMULATION
 MODEL TIME UNIT IS DAYS
 MODEL LENGTH UNIT IS FEET
 THE GROUND-WATER TRANSPORT PROCESS IS INACTIVE

 THE OBSERVATION PROCESS IS INACTIVE
 THE SENSITIVITY PROCESS IS INACTIVE
 THE PARAMETER-ESTIMATION PROCESS IS INACTIVE

 MODE: FORWARD

  Confining bed flag for each layer:
   0

        920  ELEMENTS OF GX ARRAY USED OUT OF        920
        100  ELEMENTS OF GZ ARRAY USED OUT OF        100
        100  ELEMENTS OF IG ARRAY USED OUT OF        100



                               DELR
 READING ON UNIT    8 WITH FORMAT: (FREE)              



                               DELC
 READING ON UNIT    8 WITH FORMAT: (FREE)              


 STRESS PERIOD     LENGTH       TIME STEPS     MULTIPLIER FOR DELT    SS FLAG
 ----------------------------------------------------------------------------
        1         1.000000         10                    1.000         TR
        2         1.000000         10                    1.000         TR
        3         1.000000         10                    1.000         TR

 TRANSIENT SIMULATION




 LPF1 -- LAYER PROPERTY FLOW PACKAGE, VERSION 1, 1/11/2000
         INPUT READ FROM UNIT   10
 CELL-BY-CELL FLOWS WILL BE SAVED ON UNIT   40
 HEAD AT CELLS THAT CONVERT TO DRY=  -888.00    
 No named parameters

   LAYER FLAGS:
 LAYER       LAYTYP        LAYAVG         CHANI        LAYVKA        LAYWET
 ---------------------------------------------------------------------------
    1             1             0    -1.000E+00             1             0

   INTERPRETATION OF LAYER FLAGS:
                        INTERBLOCK     HORIZONTAL    DATA IN
         LAYER TYPE   TRANSMISSIVITY   ANISOTROPY   ARRAY VKA   WETTABILITY
 LAYER      (LAYTYP)      (LAYAVG)       (CHANI)      (LAYVKA)      (LAYWET)
 ---------------------------------------------------------------------------
    1   CONVERTIBLE      HARMONIC      VARIABLE    ANISOTROPY  NON-WETTABLE

        500 ELEMENTS IN X ARRAY ARE USED BY LPF
          6 ELEMENTS IN IX ARRAY ARE USED BY LPF

 PCG2 -- CONJUGATE GRADIENT SOLUTION PACKAGE, VERSION 2.4, 12/29/98
 MAXIMUM OF     25 CALLS OF SOLUTION ROUTINE
 MAXIMUM OF     50 INTERNAL ITERATIONS PER CALL TO SOLUTION ROUTINE
 MATRIX PRECONDITIONING TYPE :    1
       2700 ELEMENTS IN X ARRAY ARE USED BY PCG
       8750 ELEMENTS IN IX ARRAY ARE USED BY PCG
        400 ELEMENTS IN Z ARRAY ARE USED BY PCG

       3200  ELEMENTS OF X ARRAY USED OUT OF       3200
        400  ELEMENTS OF Z ARRAY USED OUT OF        400
       8756  ELEMENTS OF IX ARRAY USED OUT OF       8756
          0  ELEMENTS OF XHS ARRAY USED OUT OF          1



                                    SOLUTION BY THE CONJUGATE-GRADIENT METHOD
                                   -------------------------------------------
                    MAXIMUM NUMBER OF CALLS TO PCG ROUTINE =       25
                        MAXIMUM ITERATIONS PER CALL TO PCG =       50
                               MATRIX PRECONDITIONING TYPE =        1
        RELAXATION FACTOR (ONLY USED WITH PRECOND. TYPE 1) =    0.10000E+01
 PARAMETER OF POLYNOMIAL PRECOND. = 2 (2) OR IS CALCULATED :        0
                         HEAD CHANGE CRITERION FOR CLOSURE =    0.10000E-01
                     RESIDUAL CHANGE CRITERION FOR CLOSURE =    0.10000E-01
            PCG HEAD AND RESIDUAL CHANGE PRINTOUT INTERVAL =      999
     PRINTING FROM SOLVER IS LIMITED(1) OR SUPPRESSED (>1) =        2
                                         DAMPING PARAMETER =    0.10000E+01

 WETTING CAPABILITY IS NOT ACTIVE IN ANY LAYER
 
 #GMS MODFLOW Simulation                                                         
 #09 April 2021                                                                  
 THE FREE FORMAT OPTION HAS BEEN SELECTED
    1 LAYERS        10 ROWS        10 COLUMNS
    3 STRESS PERIOD(S) IN SIMULATION

 BAS6 -- BASIC PACKAGE, VERSION 6, 1/11/2000 INPUT READ FROM UNIT    9
          5 ELEMENTS IN IR ARRAY ARE USED BY BAS

 CHD6 -- TIME-VARIANT SPECIFIED-HEAD PACKAGE, VERSION 6, 1/11/2000
 INPUT READ FROM UNIT   12
 #GMS_HDF5_01
 No named parameters
 MAXIMUM OF     10 TIME-VARIANT SPECIFIED-HEAD CELLS AT ONE TIME
 AUXILIARY CHD VARIABLE: SHEADFACT       
 AUXILIARY CHD VARIABLE: EHEADFACT       
 AUXILIARY CHD VARIABLE: CELLGRP         
         80 ELEMENTS IN RX ARRAY ARE USED BY CHD

         80  ELEMENTS OF RX ARRAY USED OUT OF         80
          0  ELEMENTS OF RZ ARRAY USED OUT OF          1
          5  ELEMENTS OF IR ARRAY USED OUT OF          5
1
 #GMS MODFLOW Simulation                                                         
 #09 April 2021                                                                  

                1           2           3           4           5           6           7           8           9          10
 ............................................................................................................................
   1            1           1           1           1           1           1           1           1           1           1
   2            1           1           1           1           1           1           1           1           1           1
   3            1           1           1           1           1           1           1           1           1           1
   4            1           1           1           1           1           1           1           1           1           1
   5            1           1           1           1           1           1           1           1           1           1
   6            1           1           1           1           1           1           1           1           1           1
   7            1           1           1           1           1           1           1           1           1           1
   8            1           1           1           1           1           1           1           1           1           1
   9            1           1           1           1           1           1           1           1           1           1
  10            1           1           1           1           1           1           1           1           1           1

 AQUIFER HEAD WILL BE SET TO -999.00     AT ALL NO-FLOW NODES (IBOUND=0).

 OUTPUT CONTROL IS SPECIFIED ONLY AT TIME STEPS FOR WHICH OUTPUT IS DESIRED
 HEADS WILL BE SAVED WITH FORMAT: (64F12.6)           
 HEAD PRINT FORMAT CODE IS   6    DRAWDOWN PRINT FORMAT CODE IS   0
 HEADS WILL BE SAVED ON UNIT    3    DRAWDOWNS WILL BE SAVED ON UNIT    0


     0 TIME-VARIANT SPECIFIED-HEAD PARAMETERS
1
                            STRESS PERIOD NO.    1, LENGTH =   1.000000    
                            -----------------------------------------------

                              NUMBER OF TIME STEPS =    10

                               MULTIPLIER FOR DELT =     1.000

                            INITIAL TIME STEP SIZE =  0.1000000    

 CHD NO.   LAYER   ROW   COL    START HEAD        END HEAD         SHEADFACT       EHEADFACT       CELLGRP         
 ------------------------------------------------------------------------------------------------------------------
      1      1      1      1       3.900           2.900           0.000           0.000          -1.000    
      2      1      2      1       3.800           2.800           0.000           0.000          -1.000    
      3      1      3      1       3.700           2.700           0.000           0.000          -1.000    
      4      1      4      1       3.600           2.600           0.000           0.000          -1.000    
      5      1      5      1       3.500           2.500           0.000           0.000          -1.000    
      6      1      6      1       3.400           2.400           0.000           0.000          -1.000    
      7      1      7      1       3.300           2.300           0.000           0.000          -1.000    
      8      1      8      1       3.200           2.200           0.000           0.000          -1.000    
      9      1      9      1       3.100           2.100           0.000           0.000          -1.000    
     10      1     10      1       3.000           2.000           0.000           0.000          -1.000    


     10 TIME-VARIANT SPECIFIED-HEAD CELLS
 
 SOLVING FOR HEAD 

 OUTPUT CONTROL FOR STRESS PERIOD    1   TIME STEP   1
    PRINT BUDGET
    SAVE HEAD FOR ALL LAYERS
    SAVE BUDGET
 UBUDSV SAVING "         STORAGE" ON UNIT 40 AT TIME STEP  1, STRESS PERIOD    1
 UBUDSV SAVING "   CONSTANT HEAD" ON UNIT 40 AT TIME STEP  1, STRESS PERIOD    1
 UBUDSV SAVING "FLOW RIGHT FACE " ON UNIT 40 AT TIME STEP  1, STRESS PERIOD    1
 UBUDSV SAVING "FLOW FRONT FACE " ON UNIT 40 AT TIME STEP  1, STRESS PERIOD    1

 HEAD WILL BE SAVED ON UNIT    3 AT END OF TIME STEP   1, STRESS PERIOD    1
1
  VOLUMETRIC BUDGET FOR ENTIRE MODEL AT END OF TIME STEP  1 IN STRESS PERIOD   1
  ------------------------------------------------------------------------------

     CUMULATIVE VOLUMES      L**3       RATES FOR THIS TIME STEP      L**3/T
     ------------------                 ------------------------

           IN:                                      IN:
           ---                                      ---
             STORAGE =         157.6983               STORAGE =        1576.9834
       CONSTANT HEAD =           0.0000         CONSTANT HEAD =           0.0000

            TOTAL IN =         157.6983              TOTAL IN =        1576.9834

          OUT:                                     OUT:
          ----                                     ----
             STORAGE =           0.0000               STORAGE =           0.0000
       CONSTANT HEAD =         157.6986         CONSTANT HEAD =        1576.9863

           TOTAL OUT =         157.6986             TOTAL OUT =        1576.9863

            IN - OUT =      -2.8992E-04              IN - OUT =      -2.9297E-03

 PERCENT DISCREPANCY =           0.00     PERCENT DISCREPANCY =           0.00






          TIME SUMMARY AT END OF TIME STEP   1 IN STRESS PERIOD    1
                    SECONDS     MINUTES      HOURS       DAYS        YEARS
                    -----------------------------------------------------------
   TIME STEP LENGTH  8640.0      144.00      2.4000     0.10000     2.73785E-04
 STRESS PERIOD TIME  8640.0      144.00      2.4000     0.10000     2.73785E-04
         TOTAL TIME  8640.0      144.00      2.4000     0.10000     2.73785E-04
1
 
 SOLVING FOR HEAD 

 OUTPUT CONTROL FOR STRESS PERIOD    1   TIME STEP   2
    PRINT BUDGET
    SAVE HEAD FOR ALL LAYERS
    SAVE BUDGET
 UBUDSV SAVING "         STORAGE" ON UNIT 40 AT TIME STEP  2, STRESS PERIOD    1
 UBUDSV SAVING "   CONSTANT HEAD" ON UNIT 40 AT TIME STEP  2, STRESS PERIOD    1
 UBUDSV SAVING "FLOW RIGHT FACE " ON UNIT 40 AT TIME STEP  2, STRESS PERIOD    1
 UBUDSV SAVING "FLOW FRONT FACE " ON UNIT 40 AT TIME STEP  2, STRESS PERIOD    1

 HEAD WILL BE SAVED ON UNIT    3 AT END OF TIME STEP   2, STRESS PERIOD    1
1
  VOLUMETRIC BUDGET FOR ENTIRE MODEL AT END OF TIME STEP  2 IN STRESS PERIOD   1
  ------------------------------------------------------------------------------

     CUMULATIVE VOLUMES      L**3       RATES FOR THIS TIME STEP      L**3/T
     ------------------                 ------------------------

           IN:                                      IN:
           ---                                      ---
             STORAGE =         270.4974               STORAGE =        1127.9907
       CONSTANT HEAD =           0.0000         CONSTANT HEAD =           0.0000

            TOTAL IN =         270.4974              TOTAL IN =        1127.9907

          OUT:                                     OUT:
          ----                                     ----
             STORAGE =           0.0000               STORAGE =           0.0000
       CONSTANT HEAD =         270.4976         CONSTANT HEAD =        1127.9893

           TOTAL OUT =         270.4976             TOTAL OUT =        1127.9893

            IN - OUT =      -1.2207E-04              IN - OUT =       1.4648E-03

 PERCENT DISCREPANCY =           0.00     PERCENT DISCREPANCY =           0.00






          TIME SUMMARY AT END OF TIME STEP   2 IN STRESS PERIOD    1
                    SECONDS     MINUTES      HOURS       DAYS        YEARS
                    -----------------------------------------------------------
   TIME STEP LENGTH  8640.0      144.00      2.4000     0.10000     2.73785E-04
 STRESS PERIOD TIME  17280.      288.00      4.8000     0.20000     5.47570E-04
         TOTAL TIME  17280.      288.00      4.8000     0.20000     5.47570E-04
1
 
 SOLVING FOR HEAD 

 OUTPUT CONTROL FOR STRESS PERIOD    1   TIME STEP   3
    PRINT BUDGET
    SAVE HEAD FOR ALL LAYERS
    SAVE BUDGET
 UBUDSV SAVING "         STORAGE" ON UNIT 40 AT TIME STEP  3, STRESS PERIOD    1
 UBUDSV SAVING "   CONSTANT HEAD" ON UNIT 40 AT TIME STEP  3, STRESS PERIOD    1
 UBUDSV SAVING "FLOW RIGHT FACE " ON UNIT 40 AT TIME STEP  3, STRESS PERIOD    1
 UBUDSV SAVING "FLOW FRONT FACE " ON UNIT 40 AT TIME STEP  3, STRESS PERIOD    1

 HEAD WILL BE SAVED ON UNIT    3 AT END OF TIME STEP   3, STRESS PERIOD    1
1
  VOLUMETRIC BUDGET FOR ENTIRE MODEL AT END OF TIME STEP  3 IN STRESS PERIOD   1
  ------------------------------------------------------------------------------

     CUMULATIVE VOLUMES      L**3       RATES FOR THIS TIME STEP      L**3/T
     ------------------                 ------------------------

           IN:                                      IN:
           ---                                      ---
             STORAGE =         354.5554               STORAGE =         840.5796
       CONSTANT HEAD =           0.0000         CONSTANT HEAD =           0.0000

            TOTAL IN =         354.5554              TOTAL IN =         840.5796

          OUT:                                     OUT:
          ----                                     ----
             STORAGE =           0.0000               STORAGE =           0.0000
       CONSTANT HEAD =         354.5555         CONSTANT HEAD =         840.5790

           TOTAL OUT =         354.5555             TOTAL OUT =         840.5790

            IN - OUT =      -6.1035E-05              IN - OUT =       6.1035E-04

 PERCENT DISCREPANCY =           0.00     PERCENT DISCREPANCY =           0.00






          TIME SUMMARY AT END OF TIME STEP   3 IN STRESS PERIOD    1
                    SECONDS     MINUTES      HOURS       DAYS        YEARS
                    -----------------------------------------------------------
   TIME STEP LENGTH  8640.0      144.00      2.4000     0.10000     2.73785E-04
 STRESS PERIOD TIME  25920.      432.00      7.2000     0.30000     8.21355E-04
         TOTAL TIME  25920.      432.00      7.2000     0.30000     8.21355E-04
1
 
 SOLVING FOR HEAD 

 OUTPUT CONTROL FOR STRESS PERIOD    1   TIME STEP   4
    PRINT BUDGET
    SAVE HEAD FOR ALL LAYERS
    SAVE BUDGET
 UBUDSV SAVING "         STORAGE" ON UNIT 40 AT TIME STEP  4, STRESS PERIOD    1
 UBUDSV SAVING "   CONSTANT HEAD" ON UNIT 40 AT TIME STEP  4, STRESS PERIOD    1
 UBUDSV SAVING "FLOW RIGHT FACE " ON UNIT 40 AT TIME STEP  4, STRESS PERIOD    1
 UBUDSV SAVING "FLOW FRONT FACE " ON UNIT 40 AT TIME STEP  4, STRESS PERIOD    1

 HEAD WILL BE SAVED ON UNIT    3 AT END OF TIME STEP   4, STRESS PERIOD    1
1
  VOLUMETRIC BUDGET FOR ENTIRE MODEL AT END OF TIME STEP  4 IN STRESS PERIOD   1
  ------------------------------------------------------------------------------

     CUMULATIVE VOLUMES      L**3       RATES FOR THIS TIME STEP      L**3/T
     ------------------                 ------------------------

           IN:                                      IN:
           ---                                      ---
             STORAGE =         419.3242               STORAGE =         647.6885
       CONSTANT HEAD =           0.0000         CONSTANT HEAD =           0.0000

            TOTAL IN =         419.3242              TOTAL IN =         647.6885

          OUT:                                     OUT:
          ----                                     ----
             STORAGE =           0.0000               STORAGE =           0.0000
       CONSTANT HEAD =         419.3244         CONSTANT HEAD =         647.6897

           TOTAL OUT =         419.3244             TOTAL OUT =         647.6897

            IN - OUT =      -1.8311E-04              IN - OUT =      -1.2207E-03

 PERCENT DISCREPANCY =           0.00     PERCENT DISCREPANCY =           0.00






          TIME SUMMARY AT END OF TIME STEP   4 IN STRESS PERIOD    1
                    SECONDS     MINUTES      HOURS       DAYS        YEARS
                    -----------------------------------------------------------
   TIME STEP LENGTH  8640.0      144.00      2.4000     0.10000     2.73785E-04
 STRESS PERIOD TIME  34560.      576.00      9.6000     0.40000     1.09514E-03
         TOTAL TIME  34560.      576.00      9.6000     0.40000     1.09514E-03
1
 
 SOLVING FOR HEAD 

 OUTPUT CONTROL FOR STRESS PERIOD    1   TIME STEP   5
    PRINT BUDGET
    SAVE HEAD FOR ALL LAYERS
    SAVE BUDGET
 UBUDSV SAVING "         STORAGE" ON UNIT 40 AT TIME STEP  5, STRESS PERIOD    1
 UBUDSV SAVING "   CONSTANT HEAD" ON UNIT 40 AT TIME STEP  5, STRESS PERIOD    1
 UBUDSV SAVING "FLOW RIGHT FACE " ON UNIT 40 AT TIME STEP  5, STRESS PERIOD    1
 UBUDSV SAVING "FLOW FRONT FACE " ON UNIT 40 AT TIME STEP  5, STRESS PERIOD    1

 HEAD WILL BE SAVED ON UNIT    3 AT END OF TIME STEP   5, STRESS PERIOD    1
1
  VOLUMETRIC BUDGET FOR ENTIRE MODEL AT END OF TIME STEP  5 IN STRESS PERIOD   1
  ------------------------------------------------------------------------------

     CUMULATIVE VOLUMES      L**3       RATES FOR THIS TIME STEP      L**3/T
     ------------------                 ------------------------

           IN:                                      IN:
           ---                                      ---
             STORAGE =         470.6518               STORAGE =         513.2759
       CONSTANT HEAD =           0.2346         CONSTANT HEAD =           2.3463

            TOTAL IN =         470.8864              TOTAL IN =         515.6222

          OUT:                                     OUT:
          ----                                     ----
             STORAGE =           0.0000               STORAGE =           0.0000
       CONSTANT HEAD =         470.8867         CONSTANT HEAD =         515.6232

           TOTAL OUT =         470.8867             TOTAL OUT =         515.6232

            IN - OUT =      -3.0518E-04              IN - OUT =      -9.7656E-04

 PERCENT DISCREPANCY =           0.00     PERCENT DISCREPANCY =           0.00






          TIME SUMMARY AT END OF TIME STEP   5 IN STRESS PERIOD    1
                    SECONDS     MINUTES      HOURS       DAYS        YEARS
                    -----------------------------------------------------------
   TIME STEP LENGTH  8640.0      144.00      2.4000     0.10000     2.73785E-04
 STRESS PERIOD TIME  43200.      720.00      12.000     0.50000     1.36893E-03
         TOTAL TIME  43200.      720.00      12.000     0.50000     1.36893E-03
1
 
 SOLVING FOR HEAD 

 OUTPUT CONTROL FOR STRESS PERIOD    1   TIME STEP   6
    PRINT BUDGET
    SAVE HEAD FOR ALL LAYERS
    SAVE BUDGET
 UBUDSV SAVING "         STORAGE" ON UNIT 40 AT TIME STEP  6, STRESS PERIOD    1
 UBUDSV SAVING "   CONSTANT HEAD" ON UNIT 40 AT TIME STEP  6, STRESS PERIOD    1
 UBUDSV SAVING "FLOW RIGHT FACE " ON UNIT 40 AT TIME STEP  6, STRESS PERIOD    1
 UBUDSV SAVING "FLOW FRONT FACE " ON UNIT 40 AT TIME STEP  6, STRESS PERIOD    1

 HEAD WILL BE SAVED ON UNIT    3 AT END OF TIME STEP   6, STRESS PERIOD    1
1
  VOLUMETRIC BUDGET FOR ENTIRE MODEL AT END OF TIME STEP  6 IN STRESS PERIOD   1
  ------------------------------------------------------------------------------

     CUMULATIVE VOLUMES      L**3       RATES FOR THIS TIME STEP      L**3/T
     ------------------                 ------------------------

           IN:                                      IN:
           ---                                      ---
             STORAGE =         512.3245               STORAGE =         416.7271
       CONSTANT HEAD =           1.1113         CONSTANT HEAD =           8.7668

            TOTAL IN =         513.4359              TOTAL IN =         425.4939

          OUT:                                     OUT:
          ----                                     ----
             STORAGE =           0.0000               STORAGE =           0.0000
       CONSTANT HEAD =         513.4364         CONSTANT HEAD =         425.4966

           TOTAL OUT =         513.4364             TOTAL OUT =         425.4966

            IN - OUT =      -5.4932E-04              IN - OUT =      -2.7161E-03

 PERCENT DISCREPANCY =           0.00     PERCENT DISCREPANCY =           0.00






          TIME SUMMARY AT END OF TIME STEP   6 IN STRESS PERIOD    1
                    SECONDS     MINUTES      HOURS       DAYS        YEARS
                    -----------------------------------------------------------
   TIME STEP LENGTH  8640.0      144.00      2.4000     0.10000     2.73785E-04
 STRESS PERIOD TIME  51840.      864.00      14.400     0.60000     1.64271E-03
         TOTAL TIME  51840.      864.00      14.400     0.60000     1.64271E-03
1
 
 SOLVING FOR HEAD 

 OUTPUT CONTROL FOR STRESS PERIOD    1   TIME STEP   7
    PRINT BUDGET
    SAVE HEAD FOR ALL LAYERS
    SAVE BUDGET
 UBUDSV SAVING "         STORAGE" ON UNIT 40 AT TIME STEP  7, STRESS PERIOD    1
 UBUDSV SAVING "   CONSTANT HEAD" ON UNIT 40 AT TIME STEP  7, STRESS PERIOD    1
 UBUDSV SAVING "FLOW RIGHT FACE " ON UNIT 40 AT TIME STEP  7, STRESS PERIOD    1
 UBUDSV SAVING "FLOW FRONT FACE " ON UNIT 40 AT TIME STEP  7, STRESS PERIOD    1

 HEAD WILL BE SAVED ON UNIT    3 AT END OF TIME STEP   7, STRESS PERIOD    1
1
  VOLUMETRIC BUDGET FOR ENTIRE MODEL AT END OF TIME STEP  7 IN STRESS PERIOD   1
  ------------------------------------------------------------------------------

     CUMULATIVE VOLUMES      L**3       RATES FOR THIS TIME STEP      L**3/T
     ------------------                 ------------------------

           IN:                                      IN:
           ---                                      ---
             STORAGE =         546.8864               STORAGE =         345.6191
       CONSTANT HEAD =           2.4243         CONSTANT HEAD =          13.1301

            TOTAL IN =         549.3107              TOTAL IN =         358.7492

          OUT:                                     OUT:
          ----                                     ----
             STORAGE =           0.0000               STORAGE =           0.0000
       CONSTANT HEAD =         549.3115         CONSTANT HEAD =         358.7512

           TOTAL OUT =         549.3115             TOTAL OUT =         358.7512

            IN - OUT =      -7.9346E-04              IN - OUT =      -1.9531E-03

 PERCENT DISCREPANCY =           0.00     PERCENT DISCREPANCY =           0.00






          TIME SUMMARY AT END OF TIME STEP   7 IN STRESS PERIOD    1
                    SECONDS     MINUTES      HOURS       DAYS        YEARS
                    -----------------------------------------------------------
   TIME STEP LENGTH  8640.0      144.00      2.4000     0.10000     2.73785E-04
 STRESS PERIOD TIME  60480.      1008.0      16.800     0.70000     1.91650E-03
         TOTAL TIME  60480.      1008.0      16.800     0.70000     1.91650E-03
1
 
 SOLVING FOR HEAD 

 OUTPUT CONTROL FOR STRESS PERIOD    1   TIME STEP   8
    PRINT BUDGET
    SAVE HEAD FOR ALL LAYERS
    SAVE BUDGET
 UBUDSV SAVING "         STORAGE" ON UNIT 40 AT TIME STEP  8, STRESS PERIOD    1
 UBUDSV SAVING "   CONSTANT HEAD" ON UNIT 40 AT TIME STEP  8, STRESS PERIOD    1
 UBUDSV SAVING "FLOW RIGHT FACE " ON UNIT 40 AT TIME STEP  8, STRESS PERIOD    1
 UBUDSV SAVING "FLOW FRONT FACE " ON UNIT 40 AT TIME STEP  8, STRESS PERIOD    1

 HEAD WILL BE SAVED ON UNIT    3 AT END OF TIME STEP   8, STRESS PERIOD    1
1
  VOLUMETRIC BUDGET FOR ENTIRE MODEL AT END OF TIME STEP  8 IN STRESS PERIOD   1
  ------------------------------------------------------------------------------

     CUMULATIVE VOLUMES      L**3       RATES FOR THIS TIME STEP      L**3/T
     ------------------                 ------------------------

           IN:                                      IN:
           ---                                      ---
             STORAGE =         576.0992               STORAGE =         292.1279
       CONSTANT HEAD =           4.0312         CONSTANT HEAD =          16.0690

            TOTAL IN =         580.1304              TOTAL IN =         308.1969

          OUT:                                     OUT:
          ----                                     ----
             STORAGE =           0.0000               STORAGE =           0.0000
       CONSTANT HEAD =         580.1313         CONSTANT HEAD =         308.1974

           TOTAL OUT =         580.1313             TOTAL OUT =         308.1974

            IN - OUT =      -9.1553E-04              IN - OUT =      -4.5776E-04

 PERCENT DISCREPANCY =           0.00     PERCENT DISCREPANCY =           0.00






          TIME SUMMARY AT END OF TIME STEP   8 IN STRESS PERIOD    1
                    SECONDS     MINUTES      HOURS       DAYS        YEARS
                    -----------------------------------------------------------
   TIME STEP LENGTH  8640.0      144.00      2.4000     0.10000     2.73785E-04
 STRESS PERIOD TIME  69120.      1152.0      19.200     0.80000     2.19028E-03
         TOTAL TIME  69120.      1152.0      19.200     0.80000     2.19028E-03
1
 
 SOLVING FOR HEAD 

 OUTPUT CONTROL FOR STRESS PERIOD    1   TIME STEP   9
    PRINT BUDGET
    SAVE HEAD FOR ALL LAYERS
    SAVE BUDGET
 UBUDSV SAVING "         STORAGE" ON UNIT 40 AT TIME STEP  9, STRESS PERIOD    1
 UBUDSV SAVING "   CONSTANT HEAD" ON UNIT 40 AT TIME STEP  9, STRESS PERIOD    1
 UBUDSV SAVING "FLOW RIGHT FACE " ON UNIT 40 AT TIME STEP  9, STRESS PERIOD    1
 UBUDSV SAVING "FLOW FRONT FACE " ON UNIT 40 AT TIME STEP  9, STRESS PERIOD    1

 HEAD WILL BE SAVED ON UNIT    3 AT END OF TIME STEP   9, STRESS PERIOD    1
1
  VOLUMETRIC BUDGET FOR ENTIRE MODEL AT END OF TIME STEP  9 IN STRESS PERIOD   1
  ------------------------------------------------------------------------------

     CUMULATIVE VOLUMES      L**3       RATES FOR THIS TIME STEP      L**3/T
     ------------------                 ------------------------

           IN:                                      IN:
           ---                                      ---
             STORAGE =         601.2156               STORAGE =         251.1638
       CONSTANT HEAD =           6.0500         CONSTANT HEAD =          20.1879

            TOTAL IN =         607.2656              TOTAL IN =         271.3517

          OUT:                                     OUT:
          ----                                     ----
             STORAGE =           0.0000               STORAGE =           0.0000
       CONSTANT HEAD =         607.2665         CONSTANT HEAD =         271.3525

           TOTAL OUT =         607.2665             TOTAL OUT =         271.3525

            IN - OUT =      -9.7656E-04              IN - OUT =      -7.9346E-04

 PERCENT DISCREPANCY =           0.00     PERCENT DISCREPANCY =           0.00






          TIME SUMMARY AT END OF TIME STEP   9 IN STRESS PERIOD    1
                    SECONDS     MINUTES      HOURS       DAYS        YEARS
                    -----------------------------------------------------------
   TIME STEP LENGTH  8640.0      144.00      2.4000     0.10000     2.73785E-04
 STRESS PERIOD TIME  77760.      1296.0      21.600     0.90000     2.46407E-03
         TOTAL TIME  77760.      1296.0      21.600     0.90000     2.46407E-03
1
 
 SOLVING FOR HEAD 

 OUTPUT CONTROL FOR STRESS PERIOD    1   TIME STEP  10
    PRINT BUDGET
    SAVE HEAD FOR ALL LAYERS
    SAVE BUDGET
 UBUDSV SAVING "         STORAGE" ON UNIT 40 AT TIME STEP 10, STRESS PERIOD    1
 UBUDSV SAVING "   CONSTANT HEAD" ON UNIT 40 AT TIME STEP 10, STRESS PERIOD    1
 UBUDSV SAVING "FLOW RIGHT FACE " ON UNIT 40 AT TIME STEP 10, STRESS PERIOD    1
 UBUDSV SAVING "FLOW FRONT FACE " ON UNIT 40 AT TIME STEP 10, STRESS PERIOD    1

 HEAD WILL BE SAVED ON UNIT    3 AT END OF TIME STEP  10, STRESS PERIOD    1
1
  VOLUMETRIC BUDGET FOR ENTIRE MODEL AT END OF TIME STEP 10 IN STRESS PERIOD   1
  ------------------------------------------------------------------------------

     CUMULATIVE VOLUMES      L**3       RATES FOR THIS TIME STEP      L**3/T
     ------------------                 ------------------------

           IN:                                      IN:
           ---                                      ---
             STORAGE =         623.1451               STORAGE =         219.2959
       CONSTANT HEAD =           8.3631         CONSTANT HEAD =          23.1310

            TOTAL IN =         631.5082              TOTAL IN =         242.4269

          OUT:                                     OUT:
          ----                                     ----
             STORAGE =           0.0000               STORAGE =           0.0000
       CONSTANT HEAD =         631.5093         CONSTANT HEAD =         242.4281

           TOTAL OUT =         631.5093             TOTAL OUT =         242.4281

            IN - OUT =      -1.0986E-03              IN - OUT =      -1.1902E-03

 PERCENT DISCREPANCY =           0.00     PERCENT DISCREPANCY =           0.00






          TIME SUMMARY AT END OF TIME STEP  10 IN STRESS PERIOD    1
                    SECONDS     MINUTES      HOURS       DAYS        YEARS
                    -----------------------------------------------------------
   TIME STEP LENGTH  8640.0      144.00      2.4000     0.10000     2.73785E-04
 STRESS PERIOD TIME  86400.      1440.0      24.000      1.0000     2.73785E-03
         TOTAL TIME  86400.      1440.0      24.000      1.0000     2.73785E-03
1
1
                            STRESS PERIOD NO.    2, LENGTH =   1.000000    
                            -----------------------------------------------

                              NUMBER OF TIME STEPS =    10

                               MULTIPLIER FOR DELT =     1.000

                            INITIAL TIME STEP SIZE =  0.1000000    

 CHD NO.   LAYER   ROW   COL    START HEAD        END HEAD         SHEADFACT       EHEADFACT       CELLGRP         
 ------------------------------------------------------------------------------------------------------------------
      1      1      1      1       2.900           1.900           0.000           0.000          -1.000    
      2      1      2      1       2.800           1.800           0.000           0.000          -1.000    
      3      1      3      1       2.700           1.700           0.000           0.000          -1.000    
      4      1      4      1       2.600           1.600           0.000           0.000          -1.000    
      5      1      5      1       2.500           1.500           0.000           0.000          -1.000    
      6      1      6      1       2.400           1.400           0.000           0.000          -1.000    
      7      1      7      1       2.300           1.300           0.000           0.000          -1.000    
      8      1      8      1       2.200           1.200           0.000           0.000          -1.000    
      9      1      9      1       2.100           1.100           0.000           0.000          -1.000    
     10      1     10      1       2.000           1.000           0.000           0.000          -1.000    


     10 TIME-VARIANT SPECIFIED-HEAD CELLS
 
 SOLVING FOR HEAD 

 OUTPUT CONTROL FOR STRESS PERIOD    2   TIME STEP   1
    PRINT BUDGET
    SAVE HEAD FOR ALL LAYERS
    SAVE BUDGET
 UBUDSV SAVING "         STORAGE" ON UNIT 40 AT TIME STEP  1, STRESS PERIOD    2
 UBUDSV SAVING "   CONSTANT HEAD" ON UNIT 40 AT TIME STEP  1, STRESS PERIOD    2
 UBUDSV SAVING "FLOW RIGHT FACE " ON UNIT 40 AT TIME STEP  1, STRESS PERIOD    2
 UBUDSV SAVING "FLOW FRONT FACE " ON UNIT 40 AT TIME STEP  1, STRESS PERIOD    2

 HEAD WILL BE SAVED ON UNIT    3 AT END OF TIME STEP   1, STRESS PERIOD    2
1
  VOLUMETRIC BUDGET FOR ENTIRE MODEL AT END OF TIME STEP  1 IN STRESS PERIOD   2
  ------------------------------------------------------------------------------

     CUMULATIVE VOLUMES      L**3       RATES FOR THIS TIME STEP      L**3/T
     ------------------                 ------------------------

           IN:                                      IN:
           ---                                      ---
             STORAGE =         642.5607               STORAGE =         194.1560
       CONSTANT HEAD =          10.8608         CONSTANT HEAD =          24.9768

            TOTAL IN =         653.4215              TOTAL IN =         219.1328

          OUT:                                     OUT:
          ----                                     ----
             STORAGE =           0.0000               STORAGE =           0.0000
       CONSTANT HEAD =         653.4227         CONSTANT HEAD =         219.1331

           TOTAL OUT =         653.4227             TOTAL OUT =         219.1331

            IN - OUT =      -1.1597E-03              IN - OUT =      -3.6621E-04

 PERCENT DISCREPANCY =           0.00     PERCENT DISCREPANCY =           0.00






          TIME SUMMARY AT END OF TIME STEP   1 IN STRESS PERIOD    2
                    SECONDS     MINUTES      HOURS       DAYS        YEARS
                    -----------------------------------------------------------
   TIME STEP LENGTH  8640.0      144.00      2.4000     0.10000     2.73785E-04
 STRESS PERIOD TIME  8640.0      144.00      2.4000     0.10000     2.73785E-04
         TOTAL TIME  95040.      1584.0      26.400      1.1000     3.01164E-03
1
 
 SOLVING FOR HEAD 

 OUTPUT CONTROL FOR STRESS PERIOD    2   TIME STEP   2
    PRINT BUDGET
    SAVE HEAD FOR ALL LAYERS
    SAVE BUDGET
 UBUDSV SAVING "         STORAGE" ON UNIT 40 AT TIME STEP  2, STRESS PERIOD    2
 UBUDSV SAVING "   CONSTANT HEAD" ON UNIT 40 AT TIME STEP  2, STRESS PERIOD    2
 UBUDSV SAVING "FLOW RIGHT FACE " ON UNIT 40 AT TIME STEP  2, STRESS PERIOD    2
 UBUDSV SAVING "FLOW FRONT FACE " ON UNIT 40 AT TIME STEP  2, STRESS PERIOD    2

 HEAD WILL BE SAVED ON UNIT    3 AT END OF TIME STEP   2, STRESS PERIOD    2
1
  VOLUMETRIC BUDGET FOR ENTIRE MODEL AT END OF TIME STEP  2 IN STRESS PERIOD   2
  ------------------------------------------------------------------------------

     CUMULATIVE VOLUMES      L**3       RATES FOR THIS TIME STEP      L**3/T
     ------------------                 ------------------------

           IN:                                      IN:
           ---                                      ---
             STORAGE =         659.9670               STORAGE =         174.0627
       CONSTANT HEAD =          13.4607         CONSTANT HEAD =          25.9994

            TOTAL IN =         673.4277              TOTAL IN =         200.0621

          OUT:                                     OUT:
          ----                                     ----
             STORAGE =           0.0000               STORAGE =           0.0000
       CONSTANT HEAD =         673.4290         CONSTANT HEAD =         200.0634

           TOTAL OUT =         673.4290             TOTAL OUT =         200.0634

            IN - OUT =      -1.3428E-03              IN - OUT =      -1.2970E-03

 PERCENT DISCREPANCY =           0.00     PERCENT DISCREPANCY =           0.00






          TIME SUMMARY AT END OF TIME STEP   2 IN STRESS PERIOD    2
                    SECONDS     MINUTES      HOURS       DAYS        YEARS
                    -----------------------------------------------------------
   TIME STEP LENGTH  8640.0      144.00      2.4000     0.10000     2.73785E-04
 STRESS PERIOD TIME  17280.      288.00      4.8000     0.20000     5.47570E-04
         TOTAL TIME 1.03680E+05  1728.0      28.800      1.2000     3.28542E-03
1
 
 SOLVING FOR HEAD 

 OUTPUT CONTROL FOR STRESS PERIOD    2   TIME STEP   3
    PRINT BUDGET
    SAVE HEAD FOR ALL LAYERS
    SAVE BUDGET
 UBUDSV SAVING "         STORAGE" ON UNIT 40 AT TIME STEP  3, STRESS PERIOD    2
 UBUDSV SAVING "   CONSTANT HEAD" ON UNIT 40 AT TIME STEP  3, STRESS PERIOD    2
 UBUDSV SAVING "FLOW RIGHT FACE " ON UNIT 40 AT TIME STEP  3, STRESS PERIOD    2
 UBUDSV SAVING "FLOW FRONT FACE " ON UNIT 40 AT TIME STEP  3, STRESS PERIOD    2

 HEAD WILL BE SAVED ON UNIT    3 AT END OF TIME STEP   3, STRESS PERIOD    2
1
  VOLUMETRIC BUDGET FOR ENTIRE MODEL AT END OF TIME STEP  3 IN STRESS PERIOD   2
  ------------------------------------------------------------------------------

     CUMULATIVE VOLUMES      L**3       RATES FOR THIS TIME STEP      L**3/T
     ------------------                 ------------------------

           IN:                                      IN:
           ---                                      ---
             STORAGE =         675.7480               STORAGE =         157.8101
       CONSTANT HEAD =          16.1003         CONSTANT HEAD =          26.3954

            TOTAL IN =         691.8483              TOTAL IN =         184.2055

          OUT:                                     OUT:
          ----                                     ----
             STORAGE =           0.0000               STORAGE =           0.0000
       CONSTANT HEAD =         691.8497         CONSTANT HEAD =         184.2065

           TOTAL OUT =         691.8497             TOTAL OUT =         184.2065

            IN - OUT =      -1.4038E-03              IN - OUT =      -1.0223E-03

 PERCENT DISCREPANCY =           0.00     PERCENT DISCREPANCY =           0.00






          TIME SUMMARY AT END OF TIME STEP   3 IN STRESS PERIOD    2
                    SECONDS     MINUTES      HOURS       DAYS        YEARS
                    -----------------------------------------------------------
   TIME STEP LENGTH  8640.0      144.00      2.4000     0.10000     2.73785E-04
 STRESS PERIOD TIME  25920.      432.00      7.2000     0.30000     8.21355E-04
         TOTAL TIME 1.12320E+05  1872.0      31.200      1.3000     3.55921E-03
1
 
 SOLVING FOR HEAD 

 OUTPUT CONTROL FOR STRESS PERIOD    2   TIME STEP   4
    PRINT BUDGET
    SAVE HEAD FOR ALL LAYERS
    SAVE BUDGET
 UBUDSV SAVING "         STORAGE" ON UNIT 40 AT TIME STEP  4, STRESS PERIOD    2
 UBUDSV SAVING "   CONSTANT HEAD" ON UNIT 40 AT TIME STEP  4, STRESS PERIOD    2
 UBUDSV SAVING "FLOW RIGHT FACE " ON UNIT 40 AT TIME STEP  4, STRESS PERIOD    2
 UBUDSV SAVING "FLOW FRONT FACE " ON UNIT 40 AT TIME STEP  4, STRESS PERIOD    2

 HEAD WILL BE SAVED ON UNIT    3 AT END OF TIME STEP   4, STRESS PERIOD    2
1
  VOLUMETRIC BUDGET FOR ENTIRE MODEL AT END OF TIME STEP  4 IN STRESS PERIOD   2
  ------------------------------------------------------------------------------

     CUMULATIVE VOLUMES      L**3       RATES FOR THIS TIME STEP      L**3/T
     ------------------                 ------------------------

           IN:                                      IN:
           ---                                      ---
             STORAGE =         690.1985               STORAGE =         144.5059
       CONSTANT HEAD =          18.7312         CONSTANT HEAD =          26.3096

            TOTAL IN =         708.9297              TOTAL IN =         170.8155

          OUT:                                     OUT:
          ----                                     ----
             STORAGE =           0.0000               STORAGE =           0.0000
       CONSTANT HEAD =         708.9313         CONSTANT HEAD =         170.8167

           TOTAL OUT =         708.9313             TOTAL OUT =         170.8167

            IN - OUT =      -1.5869E-03              IN - OUT =      -1.1902E-03

 PERCENT DISCREPANCY =           0.00     PERCENT DISCREPANCY =           0.00






          TIME SUMMARY AT END OF TIME STEP   4 IN STRESS PERIOD    2
                    SECONDS     MINUTES      HOURS       DAYS        YEARS
                    -----------------------------------------------------------
   TIME STEP LENGTH  8640.0      144.00      2.4000     0.10000     2.73785E-04
 STRESS PERIOD TIME  34560.      576.00      9.6000     0.40000     1.09514E-03
         TOTAL TIME 1.20960E+05  2016.0      33.600      1.4000     3.83299E-03
1
 
 SOLVING FOR HEAD 

 OUTPUT CONTROL FOR STRESS PERIOD    2   TIME STEP   5
    PRINT BUDGET
    SAVE HEAD FOR ALL LAYERS
    SAVE BUDGET
 UBUDSV SAVING "         STORAGE" ON UNIT 40 AT TIME STEP  5, STRESS PERIOD    2
 UBUDSV SAVING "   CONSTANT HEAD" ON UNIT 40 AT TIME STEP  5, STRESS PERIOD    2
 UBUDSV SAVING "FLOW RIGHT FACE " ON UNIT 40 AT TIME STEP  5, STRESS PERIOD    2
 UBUDSV SAVING "FLOW FRONT FACE " ON UNIT 40 AT TIME STEP  5, STRESS PERIOD    2

 HEAD WILL BE SAVED ON UNIT    3 AT END OF TIME STEP   5, STRESS PERIOD    2
1
  VOLUMETRIC BUDGET FOR ENTIRE MODEL AT END OF TIME STEP  5 IN STRESS PERIOD   2
  ------------------------------------------------------------------------------

     CUMULATIVE VOLUMES      L**3       RATES FOR THIS TIME STEP      L**3/T
     ------------------                 ------------------------

           IN:                                      IN:
           ---                                      ---
             STORAGE =         703.5475               STORAGE =         133.4897
       CONSTANT HEAD =          21.3162         CONSTANT HEAD =          25.8499

            TOTAL IN =         724.8638              TOTAL IN =         159.3396

          OUT:                                     OUT:
          ----                                     ----
             STORAGE =           0.0000               STORAGE =           0.0000
       CONSTANT HEAD =         724.8654         CONSTANT HEAD =         159.3404

           TOTAL OUT =         724.8654             TOTAL OUT =         159.3404

            IN - OUT =      -1.5869E-03              IN - OUT =      -8.0872E-04

 PERCENT DISCREPANCY =           0.00     PERCENT DISCREPANCY =           0.00






          TIME SUMMARY AT END OF TIME STEP   5 IN STRESS PERIOD    2
                    SECONDS     MINUTES      HOURS       DAYS        YEARS
                    -----------------------------------------------------------
   TIME STEP LENGTH  8640.0      144.00      2.4000     0.10000     2.73785E-04
 STRESS PERIOD TIME  43200.      720.00      12.000     0.50000     1.36893E-03
         TOTAL TIME 1.29600E+05  2160.0      36.000      1.5000     4.10678E-03
1
 
 SOLVING FOR HEAD 

 OUTPUT CONTROL FOR STRESS PERIOD    2   TIME STEP   6
    PRINT BUDGET
    SAVE HEAD FOR ALL LAYERS
    SAVE BUDGET
 UBUDSV SAVING "         STORAGE" ON UNIT 40 AT TIME STEP  6, STRESS PERIOD    2
 UBUDSV SAVING "   CONSTANT HEAD" ON UNIT 40 AT TIME STEP  6, STRESS PERIOD    2
 UBUDSV SAVING "FLOW RIGHT FACE " ON UNIT 40 AT TIME STEP  6, STRESS PERIOD    2
 UBUDSV SAVING "FLOW FRONT FACE " ON UNIT 40 AT TIME STEP  6, STRESS PERIOD    2

 HEAD WILL BE SAVED ON UNIT    3 AT END OF TIME STEP   6, STRESS PERIOD    2
1
  VOLUMETRIC BUDGET FOR ENTIRE MODEL AT END OF TIME STEP  6 IN STRESS PERIOD   2
  ------------------------------------------------------------------------------

     CUMULATIVE VOLUMES      L**3       RATES FOR THIS TIME STEP      L**3/T
     ------------------                 ------------------------

           IN:                                      IN:
           ---                                      ---
             STORAGE =         715.9742               STORAGE =         124.2666
       CONSTANT HEAD =          23.8260         CONSTANT HEAD =          25.0981

            TOTAL IN =         739.8002              TOTAL IN =         149.3647

          OUT:                                     OUT:
          ----                                     ----
             STORAGE =           0.0000               STORAGE =           0.0000
       CONSTANT HEAD =         739.8019         CONSTANT HEAD =         149.3654

           TOTAL OUT =         739.8019             TOTAL OUT =         149.3654

            IN - OUT =      -1.6479E-03              IN - OUT =      -7.0190E-04

 PERCENT DISCREPANCY =           0.00     PERCENT DISCREPANCY =           0.00






          TIME SUMMARY AT END OF TIME STEP   6 IN STRESS PERIOD    2
                    SECONDS     MINUTES      HOURS       DAYS        YEARS
                    -----------------------------------------------------------
   TIME STEP LENGTH  8640.0      144.00      2.4000     0.10000     2.73785E-04
 STRESS PERIOD TIME  51840.      864.00      14.400     0.60000     1.64271E-03
         TOTAL TIME 1.38240E+05  2304.0      38.400      1.6000     4.38056E-03
1
 
 SOLVING FOR HEAD 

 OUTPUT CONTROL FOR STRESS PERIOD    2   TIME STEP   7
    PRINT BUDGET
    SAVE HEAD FOR ALL LAYERS
    SAVE BUDGET
 UBUDSV SAVING "         STORAGE" ON UNIT 40 AT TIME STEP  7, STRESS PERIOD    2
 UBUDSV SAVING "   CONSTANT HEAD" ON UNIT 40 AT TIME STEP  7, STRESS PERIOD    2
 UBUDSV SAVING "FLOW RIGHT FACE " ON UNIT 40 AT TIME STEP  7, STRESS PERIOD    2
 UBUDSV SAVING "FLOW FRONT FACE " ON UNIT 40 AT TIME STEP  7, STRESS PERIOD    2

 HEAD WILL BE SAVED ON UNIT    3 AT END OF TIME STEP   7, STRESS PERIOD    2
1
  VOLUMETRIC BUDGET FOR ENTIRE MODEL AT END OF TIME STEP  7 IN STRESS PERIOD   2
  ------------------------------------------------------------------------------

     CUMULATIVE VOLUMES      L**3       RATES FOR THIS TIME STEP      L**3/T
     ------------------                 ------------------------

           IN:                                      IN:
           ---                                      ---
             STORAGE =         727.6191               STORAGE =         116.4490
       CONSTANT HEAD =          26.2377         CONSTANT HEAD =          24.1166

            TOTAL IN =         753.8568              TOTAL IN =         140.5656

          OUT:                                     OUT:
          ----                                     ----
             STORAGE =           0.0000               STORAGE =           0.0000
       CONSTANT HEAD =         753.8586         CONSTANT HEAD =         140.5669

           TOTAL OUT =         753.8586             TOTAL OUT =         140.5669

            IN - OUT =      -1.8311E-03              IN - OUT =      -1.2360E-03

 PERCENT DISCREPANCY =           0.00     PERCENT DISCREPANCY =           0.00






          TIME SUMMARY AT END OF TIME STEP   7 IN STRESS PERIOD    2
                    SECONDS     MINUTES      HOURS       DAYS        YEARS
                    -----------------------------------------------------------
   TIME STEP LENGTH  8640.0      144.00      2.4000     0.10000     2.73785E-04
 STRESS PERIOD TIME  60480.      1008.0      16.800     0.70000     1.91650E-03
         TOTAL TIME 1.46880E+05  2448.0      40.800      1.7000     4.65435E-03
1
 
 SOLVING FOR HEAD 

 OUTPUT CONTROL FOR STRESS PERIOD    2   TIME STEP   8
    PRINT BUDGET
    SAVE HEAD FOR ALL LAYERS
    SAVE BUDGET
 UBUDSV SAVING "         STORAGE" ON UNIT 40 AT TIME STEP  8, STRESS PERIOD    2
 UBUDSV SAVING "   CONSTANT HEAD" ON UNIT 40 AT TIME STEP  8, STRESS PERIOD    2
 UBUDSV SAVING "FLOW RIGHT FACE " ON UNIT 40 AT TIME STEP  8, STRESS PERIOD    2
 UBUDSV SAVING "FLOW FRONT FACE " ON UNIT 40 AT TIME STEP  8, STRESS PERIOD    2

 HEAD WILL BE SAVED ON UNIT    3 AT END OF TIME STEP   8, STRESS PERIOD    2
1
  VOLUMETRIC BUDGET FOR ENTIRE MODEL AT END OF TIME STEP  8 IN STRESS PERIOD   2
  ------------------------------------------------------------------------------

     CUMULATIVE VOLUMES      L**3       RATES FOR THIS TIME STEP      L**3/T
     ------------------                 ------------------------

           IN:                                      IN:
           ---                                      ---
             STORAGE =         738.5932               STORAGE =         109.7410
       CONSTANT HEAD =          28.5331         CONSTANT HEAD =          22.9537

            TOTAL IN =         767.1263              TOTAL IN =         132.6946

          OUT:                                     OUT:
          ----                                     ----
             STORAGE =           0.0000               STORAGE =           0.0000
       CONSTANT HEAD =         767.1282         CONSTANT HEAD =         132.6960

           TOTAL OUT =         767.1282             TOTAL OUT =         132.6960

            IN - OUT =      -1.8921E-03              IN - OUT =      -1.3733E-03

 PERCENT DISCREPANCY =           0.00     PERCENT DISCREPANCY =           0.00






          TIME SUMMARY AT END OF TIME STEP   8 IN STRESS PERIOD    2
                    SECONDS     MINUTES      HOURS       DAYS        YEARS
                    -----------------------------------------------------------
   TIME STEP LENGTH  8640.0      144.00      2.4000     0.10000     2.73785E-04
 STRESS PERIOD TIME  69120.      1152.0      19.200     0.80000     2.19028E-03
         TOTAL TIME 1.55520E+05  2592.0      43.200      1.8000     4.92813E-03
1
 
 SOLVING FOR HEAD 

 OUTPUT CONTROL FOR STRESS PERIOD    2   TIME STEP   9
    PRINT BUDGET
    SAVE HEAD FOR ALL LAYERS
    SAVE BUDGET
 UBUDSV SAVING "         STORAGE" ON UNIT 40 AT TIME STEP  9, STRESS PERIOD    2
 UBUDSV SAVING "   CONSTANT HEAD" ON UNIT 40 AT TIME STEP  9, STRESS PERIOD    2
 UBUDSV SAVING "FLOW RIGHT FACE " ON UNIT 40 AT TIME STEP  9, STRESS PERIOD    2
 UBUDSV SAVING "FLOW FRONT FACE " ON UNIT 40 AT TIME STEP  9, STRESS PERIOD    2

 HEAD WILL BE SAVED ON UNIT    3 AT END OF TIME STEP   9, STRESS PERIOD    2
1
  VOLUMETRIC BUDGET FOR ENTIRE MODEL AT END OF TIME STEP  9 IN STRESS PERIOD   2
  ------------------------------------------------------------------------------

     CUMULATIVE VOLUMES      L**3       RATES FOR THIS TIME STEP      L**3/T
     ------------------                 ------------------------

           IN:                                      IN:
           ---                                      ---
             STORAGE =         748.9841               STORAGE =         103.9092
       CONSTANT HEAD =          30.6978         CONSTANT HEAD =          21.6470

            TOTAL IN =         779.6819              TOTAL IN =         125.5562

          OUT:                                     OUT:
          ----                                     ----
             STORAGE =           0.0000               STORAGE =           0.0000
       CONSTANT HEAD =         779.6840         CONSTANT HEAD =         125.5581

           TOTAL OUT =         779.6840             TOTAL OUT =         125.5581

            IN - OUT =      -2.0752E-03              IN - OUT =      -1.8692E-03

 PERCENT DISCREPANCY =           0.00     PERCENT DISCREPANCY =           0.00






          TIME SUMMARY AT END OF TIME STEP   9 IN STRESS PERIOD    2
                    SECONDS     MINUTES      HOURS       DAYS        YEARS
                    -----------------------------------------------------------
   TIME STEP LENGTH  8640.0      144.00      2.4000     0.10000     2.73785E-04
 STRESS PERIOD TIME  77760.      1296.0      21.600     0.90000     2.46407E-03
         TOTAL TIME 1.64160E+05  2736.0      45.600      1.9000     5.20192E-03
1
 
 SOLVING FOR HEAD 

 OUTPUT CONTROL FOR STRESS PERIOD    2   TIME STEP  10
    PRINT BUDGET
    SAVE HEAD FOR ALL LAYERS
    SAVE BUDGET
 UBUDSV SAVING "         STORAGE" ON UNIT 40 AT TIME STEP 10, STRESS PERIOD    2
 UBUDSV SAVING "   CONSTANT HEAD" ON UNIT 40 AT TIME STEP 10, STRESS PERIOD    2
 UBUDSV SAVING "FLOW RIGHT FACE " ON UNIT 40 AT TIME STEP 10, STRESS PERIOD    2
 UBUDSV SAVING "FLOW FRONT FACE " ON UNIT 40 AT TIME STEP 10, STRESS PERIOD    2

 HEAD WILL BE SAVED ON UNIT    3 AT END OF TIME STEP  10, STRESS PERIOD    2
1
  VOLUMETRIC BUDGET FOR ENTIRE MODEL AT END OF TIME STEP 10 IN STRESS PERIOD   2
  ------------------------------------------------------------------------------

     CUMULATIVE VOLUMES      L**3       RATES FOR THIS TIME STEP      L**3/T
     ------------------                 ------------------------

           IN:                                      IN:
           ---                                      ---
             STORAGE =         758.8611               STORAGE =          98.7698
       CONSTANT HEAD =          32.7204         CONSTANT HEAD =          20.2265

            TOTAL IN =         791.5815              TOTAL IN =         118.9963

          OUT:                                     OUT:
          ----                                     ----
             STORAGE =           0.0000               STORAGE =           0.0000
       CONSTANT HEAD =         791.5838         CONSTANT HEAD =         118.9987

           TOTAL OUT =         791.5838             TOTAL OUT =         118.9987

            IN - OUT =      -2.3193E-03              IN - OUT =      -2.4033E-03

 PERCENT DISCREPANCY =           0.00     PERCENT DISCREPANCY =           0.00






          TIME SUMMARY AT END OF TIME STEP  10 IN STRESS PERIOD    2
                    SECONDS     MINUTES      HOURS       DAYS        YEARS
                    -----------------------------------------------------------
   TIME STEP LENGTH  8640.0      144.00      2.4000     0.10000     2.73785E-04
 STRESS PERIOD TIME  86400.      1440.0      24.000      1.0000     2.73785E-03
         TOTAL TIME 1.72800E+05  2880.0      48.000      2.0000     5.47570E-03
1
1
                            STRESS PERIOD NO.    3, LENGTH =   1.000000    
                            -----------------------------------------------

                              NUMBER OF TIME STEPS =    10

                               MULTIPLIER FOR DELT =     1.000

                            INITIAL TIME STEP SIZE =  0.1000000    

 CHD NO.   LAYER   ROW   COL    START HEAD        END HEAD         SHEADFACT       EHEADFACT       CELLGRP         
 ------------------------------------------------------------------------------------------------------------------
      1      1      1      1       1.900          0.9000           0.000           0.000          -1.000    
      2      1      2      1       1.800          0.8000           0.000           0.000          -1.000    
      3      1      3      1       1.700          0.7000           0.000           0.000          -1.000    
      4      1      4      1       1.600          0.6000           0.000           0.000          -1.000    
      5      1      5      1       1.500          0.5000           0.000           0.000          -1.000    
      6      1      6      1       1.400          0.4000           0.000           0.000          -1.000    
      7      1      7      1       1.300          0.3000           0.000           0.000          -1.000    
      8      1      8      1       1.200          0.2000           0.000           0.000          -1.000    
      9      1      9      1       1.100          0.1000           0.000           0.000          -1.000    
     10      1     10      1       1.000           0.000           0.000           0.000          -1.000    


     10 TIME-VARIANT SPECIFIED-HEAD CELLS
 
 SOLVING FOR HEAD 

 OUTPUT CONTROL FOR STRESS PERIOD    3   TIME STEP   1
    PRINT BUDGET
    SAVE HEAD FOR ALL LAYERS
    SAVE BUDGET
 UBUDSV SAVING "         STORAGE" ON UNIT 40 AT TIME STEP  1, STRESS PERIOD    3
 UBUDSV SAVING "   CONSTANT HEAD" ON UNIT 40 AT TIME STEP  1, STRESS PERIOD    3
 UBUDSV SAVING "FLOW RIGHT FACE " ON UNIT 40 AT TIME STEP  1, STRESS PERIOD    3
 UBUDSV SAVING "FLOW FRONT FACE " ON UNIT 40 AT TIME STEP  1, STRESS PERIOD    3

 HEAD WILL BE SAVED ON UNIT    3 AT END OF TIME STEP   1, STRESS PERIOD    3
1
  VOLUMETRIC BUDGET FOR ENTIRE MODEL AT END OF TIME STEP  1 IN STRESS PERIOD   3
  ------------------------------------------------------------------------------

     CUMULATIVE VOLUMES      L**3       RATES FOR THIS TIME STEP      L**3/T
     ------------------                 ------------------------

           IN:                                      IN:
           ---                                      ---
             STORAGE =         768.2786               STORAGE =          94.1753
       CONSTANT HEAD =          34.5920         CONSTANT HEAD =          18.7158

            TOTAL IN =         802.8706              TOTAL IN =         112.8911

          OUT:                                     OUT:
          ----                                     ----
             STORAGE =           0.0000               STORAGE =           0.0000
       CONSTANT HEAD =         802.8732         CONSTANT HEAD =         112.8941

           TOTAL OUT =         802.8732             TOTAL OUT =         112.8941

            IN - OUT =      -2.6245E-03              IN - OUT =      -2.9526E-03

 PERCENT DISCREPANCY =           0.00     PERCENT DISCREPANCY =           0.00






          TIME SUMMARY AT END OF TIME STEP   1 IN STRESS PERIOD    3
                    SECONDS     MINUTES      HOURS       DAYS        YEARS
                    -----------------------------------------------------------
   TIME STEP LENGTH  8640.0      144.00      2.4000     0.10000     2.73785E-04
 STRESS PERIOD TIME  8640.0      144.00      2.4000     0.10000     2.73785E-04
         TOTAL TIME 1.81440E+05  3024.0      50.400      2.1000     5.74949E-03
1
 
 SOLVING FOR HEAD 

 OUTPUT CONTROL FOR STRESS PERIOD    3   TIME STEP   2
    PRINT BUDGET
    SAVE HEAD FOR ALL LAYERS
    SAVE BUDGET
 UBUDSV SAVING "         STORAGE" ON UNIT 40 AT TIME STEP  2, STRESS PERIOD    3
 UBUDSV SAVING "   CONSTANT HEAD" ON UNIT 40 AT TIME STEP  2, STRESS PERIOD    3
 UBUDSV SAVING "FLOW RIGHT FACE " ON UNIT 40 AT TIME STEP  2, STRESS PERIOD    3
 UBUDSV SAVING "FLOW FRONT FACE " ON UNIT 40 AT TIME STEP  2, STRESS PERIOD    3

 HEAD WILL BE SAVED ON UNIT    3 AT END OF TIME STEP   2, STRESS PERIOD    3
1
  VOLUMETRIC BUDGET FOR ENTIRE MODEL AT END OF TIME STEP  2 IN STRESS PERIOD   3
  ------------------------------------------------------------------------------

     CUMULATIVE VOLUMES      L**3       RATES FOR THIS TIME STEP      L**3/T
     ------------------                 ------------------------

           IN:                                      IN:
           ---                                      ---
             STORAGE =         777.2792               STORAGE =          90.0061
       CONSTANT HEAD =          36.3054         CONSTANT HEAD =          17.1339

            TOTAL IN =         813.5846              TOTAL IN =         107.1400

          OUT:                                     OUT:
          ----                                     ----
             STORAGE =           0.0000               STORAGE =           0.0000
       CONSTANT HEAD =         813.5876         CONSTANT HEAD =         107.1439

           TOTAL OUT =         813.5876             TOTAL OUT =         107.1439

            IN - OUT =      -3.0518E-03              IN - OUT =      -3.8452E-03

 PERCENT DISCREPANCY =           0.00     PERCENT DISCREPANCY =           0.00






          TIME SUMMARY AT END OF TIME STEP   2 IN STRESS PERIOD    3
                    SECONDS     MINUTES      HOURS       DAYS        YEARS
                    -----------------------------------------------------------
   TIME STEP LENGTH  8640.0      144.00      2.4000     0.10000     2.73785E-04
 STRESS PERIOD TIME  17280.      288.00      4.8000     0.20000     5.47570E-04
         TOTAL TIME 1.90080E+05  3168.0      52.800      2.2000     6.02327E-03
1
 
 SOLVING FOR HEAD 

 OUTPUT CONTROL FOR STRESS PERIOD    3   TIME STEP   3
    PRINT BUDGET
    SAVE HEAD FOR ALL LAYERS
    SAVE BUDGET
 UBUDSV SAVING "         STORAGE" ON UNIT 40 AT TIME STEP  3, STRESS PERIOD    3
 UBUDSV SAVING "   CONSTANT HEAD" ON UNIT 40 AT TIME STEP  3, STRESS PERIOD    3
 UBUDSV SAVING "FLOW RIGHT FACE " ON UNIT 40 AT TIME STEP  3, STRESS PERIOD    3
 UBUDSV SAVING "FLOW FRONT FACE " ON UNIT 40 AT TIME STEP  3, STRESS PERIOD    3

 HEAD WILL BE SAVED ON UNIT    3 AT END OF TIME STEP   3, STRESS PERIOD    3
1
  VOLUMETRIC BUDGET FOR ENTIRE MODEL AT END OF TIME STEP  3 IN STRESS PERIOD   3
  ------------------------------------------------------------------------------

     CUMULATIVE VOLUMES      L**3       RATES FOR THIS TIME STEP      L**3/T
     ------------------                 ------------------------

           IN:                                      IN:
           ---                                      ---
             STORAGE =         785.8957               STORAGE =          86.1648
       CONSTANT HEAD =          37.8550         CONSTANT HEAD =          15.4959

            TOTAL IN =         823.7507              TOTAL IN =         101.6607

          OUT:                                     OUT:
          ----                                     ----
             STORAGE =           0.0000               STORAGE =           0.0000
       CONSTANT HEAD =         823.7542         CONSTANT HEAD =         101.6654

           TOTAL OUT =         823.7542             TOTAL OUT =         101.6654

            IN - OUT =      -3.5400E-03              IN - OUT =      -4.6768E-03

 PERCENT DISCREPANCY =           0.00     PERCENT DISCREPANCY =           0.00






          TIME SUMMARY AT END OF TIME STEP   3 IN STRESS PERIOD    3
                    SECONDS     MINUTES      HOURS       DAYS        YEARS
                    -----------------------------------------------------------
   TIME STEP LENGTH  8640.0      144.00      2.4000     0.10000     2.73785E-04
 STRESS PERIOD TIME  25920.      432.00      7.2000     0.30000     8.21355E-04
         TOTAL TIME 1.98720E+05  3312.0      55.200      2.3000     6.29706E-03
1
 
 SOLVING FOR HEAD 

 OUTPUT CONTROL FOR STRESS PERIOD    3   TIME STEP   4
    PRINT BUDGET
    SAVE HEAD FOR ALL LAYERS
    SAVE BUDGET
 UBUDSV SAVING "         STORAGE" ON UNIT 40 AT TIME STEP  4, STRESS PERIOD    3
 UBUDSV SAVING "   CONSTANT HEAD" ON UNIT 40 AT TIME STEP  4, STRESS PERIOD    3
 UBUDSV SAVING "FLOW RIGHT FACE " ON UNIT 40 AT TIME STEP  4, STRESS PERIOD    3
 UBUDSV SAVING "FLOW FRONT FACE " ON UNIT 40 AT TIME STEP  4, STRESS PERIOD    3

 HEAD WILL BE SAVED ON UNIT    3 AT END OF TIME STEP   4, STRESS PERIOD    3
1
  VOLUMETRIC BUDGET FOR ENTIRE MODEL AT END OF TIME STEP  4 IN STRESS PERIOD   3
  ------------------------------------------------------------------------------

     CUMULATIVE VOLUMES      L**3       RATES FOR THIS TIME STEP      L**3/T
     ------------------                 ------------------------

           IN:                                      IN:
           ---                                      ---
             STORAGE =         794.1526               STORAGE =          82.5693
       CONSTANT HEAD =          39.2363         CONSTANT HEAD =          13.8136

            TOTAL IN =         833.3890              TOTAL IN =          96.3830

          OUT:                                     OUT:
          ----                                     ----
             STORAGE =           0.0000               STORAGE =           0.0000
       CONSTANT HEAD =         833.3931         CONSTANT HEAD =          96.3889

           TOTAL OUT =         833.3931             TOTAL OUT =          96.3889

            IN - OUT =      -4.0894E-03              IN - OUT =      -5.8746E-03

 PERCENT DISCREPANCY =           0.00     PERCENT DISCREPANCY =          -0.01






          TIME SUMMARY AT END OF TIME STEP   4 IN STRESS PERIOD    3
                    SECONDS     MINUTES      HOURS       DAYS        YEARS
                    -----------------------------------------------------------
   TIME STEP LENGTH  8640.0      144.00      2.4000     0.10000     2.73785E-04
 STRESS PERIOD TIME  34560.      576.00      9.6000     0.40000     1.09514E-03
         TOTAL TIME 2.07360E+05  3456.0      57.600      2.4000     6.57084E-03
1
 
 SOLVING FOR HEAD 

 OUTPUT CONTROL FOR STRESS PERIOD    3   TIME STEP   5
    PRINT BUDGET
    SAVE HEAD FOR ALL LAYERS
    SAVE BUDGET
 UBUDSV SAVING "         STORAGE" ON UNIT 40 AT TIME STEP  5, STRESS PERIOD    3
 UBUDSV SAVING "   CONSTANT HEAD" ON UNIT 40 AT TIME STEP  5, STRESS PERIOD    3
 UBUDSV SAVING "FLOW RIGHT FACE " ON UNIT 40 AT TIME STEP  5, STRESS PERIOD    3
 UBUDSV SAVING "FLOW FRONT FACE " ON UNIT 40 AT TIME STEP  5, STRESS PERIOD    3

 HEAD WILL BE SAVED ON UNIT    3 AT END OF TIME STEP   5, STRESS PERIOD    3
1
  VOLUMETRIC BUDGET FOR ENTIRE MODEL AT END OF TIME STEP  5 IN STRESS PERIOD   3
  ------------------------------------------------------------------------------

     CUMULATIVE VOLUMES      L**3       RATES FOR THIS TIME STEP      L**3/T
     ------------------                 ------------------------

           IN:                                      IN:
           ---                                      ---
             STORAGE =         802.0677               STORAGE =          79.1506
       CONSTANT HEAD =          40.4459         CONSTANT HEAD =          12.0960

            TOTAL IN =         842.5136              TOTAL IN =          91.2467

          OUT:                                     OUT:
          ----                                     ----
             STORAGE =           0.0000               STORAGE =           0.0000
       CONSTANT HEAD =         842.5184         CONSTANT HEAD =          91.2535

           TOTAL OUT =         842.5184             TOTAL OUT =          91.2535

            IN - OUT =      -4.8218E-03              IN - OUT =      -6.8130E-03

 PERCENT DISCREPANCY =           0.00     PERCENT DISCREPANCY =          -0.01






          TIME SUMMARY AT END OF TIME STEP   5 IN STRESS PERIOD    3
                    SECONDS     MINUTES      HOURS       DAYS        YEARS
                    -----------------------------------------------------------
   TIME STEP LENGTH  8640.0      144.00      2.4000     0.10000     2.73785E-04
 STRESS PERIOD TIME  43200.      720.00      12.000     0.50000     1.36893E-03
         TOTAL TIME 2.16000E+05  3600.0      60.000      2.5000     6.84463E-03
1
 
 SOLVING FOR HEAD 

 OUTPUT CONTROL FOR STRESS PERIOD    3   TIME STEP   6
    PRINT BUDGET
    SAVE HEAD FOR ALL LAYERS
    SAVE BUDGET
 UBUDSV SAVING "         STORAGE" ON UNIT 40 AT TIME STEP  6, STRESS PERIOD    3
 UBUDSV SAVING "   CONSTANT HEAD" ON UNIT 40 AT TIME STEP  6, STRESS PERIOD    3
 UBUDSV SAVING "FLOW RIGHT FACE " ON UNIT 40 AT TIME STEP  6, STRESS PERIOD    3
 UBUDSV SAVING "FLOW FRONT FACE " ON UNIT 40 AT TIME STEP  6, STRESS PERIOD    3

 HEAD WILL BE SAVED ON UNIT    3 AT END OF TIME STEP   6, STRESS PERIOD    3
1
  VOLUMETRIC BUDGET FOR ENTIRE MODEL AT END OF TIME STEP  6 IN STRESS PERIOD   3
  ------------------------------------------------------------------------------

     CUMULATIVE VOLUMES      L**3       RATES FOR THIS TIME STEP      L**3/T
     ------------------                 ------------------------

           IN:                                      IN:
           ---                                      ---
             STORAGE =         809.6521               STORAGE =          75.8440
       CONSTANT HEAD =          41.4808         CONSTANT HEAD =          10.3483

            TOTAL IN =         851.1329              TOTAL IN =          86.1923

          OUT:                                     OUT:
          ----                                     ----
             STORAGE =           0.0000               STORAGE =           0.0000
       CONSTANT HEAD =         851.1384         CONSTANT HEAD =          86.1998

           TOTAL OUT =         851.1384             TOTAL OUT =          86.1998

            IN - OUT =      -5.5542E-03              IN - OUT =      -7.5150E-03

 PERCENT DISCREPANCY =           0.00     PERCENT DISCREPANCY =          -0.01






          TIME SUMMARY AT END OF TIME STEP   6 IN STRESS PERIOD    3
                    SECONDS     MINUTES      HOURS       DAYS        YEARS
                    -----------------------------------------------------------
   TIME STEP LENGTH  8640.0      144.00      2.4000     0.10000     2.73785E-04
 STRESS PERIOD TIME  51840.      864.00      14.400     0.60000     1.64271E-03
         TOTAL TIME 2.24640E+05  3744.0      62.400      2.6000     7.11841E-03
1
 
 SOLVING FOR HEAD 

 OUTPUT CONTROL FOR STRESS PERIOD    3   TIME STEP   7
    PRINT BUDGET
    SAVE HEAD FOR ALL LAYERS
    SAVE BUDGET
 UBUDSV SAVING "         STORAGE" ON UNIT 40 AT TIME STEP  7, STRESS PERIOD    3
 UBUDSV SAVING "   CONSTANT HEAD" ON UNIT 40 AT TIME STEP  7, STRESS PERIOD    3
 UBUDSV SAVING "FLOW RIGHT FACE " ON UNIT 40 AT TIME STEP  7, STRESS PERIOD    3
 UBUDSV SAVING "FLOW FRONT FACE " ON UNIT 40 AT TIME STEP  7, STRESS PERIOD    3

 HEAD WILL BE SAVED ON UNIT    3 AT END OF TIME STEP   7, STRESS PERIOD    3
1
  VOLUMETRIC BUDGET FOR ENTIRE MODEL AT END OF TIME STEP  7 IN STRESS PERIOD   3
  ------------------------------------------------------------------------------

     CUMULATIVE VOLUMES      L**3       RATES FOR THIS TIME STEP      L**3/T
     ------------------                 ------------------------

           IN:                                      IN:
           ---                                      ---
             STORAGE =         816.9114               STORAGE =          72.5930
       CONSTANT HEAD =          42.3378         CONSTANT HEAD =           8.5705

            TOTAL IN =         859.2492              TOTAL IN =          81.1636

          OUT:                                     OUT:
          ----                                     ----
             STORAGE =           0.0000               STORAGE =           0.0000
       CONSTANT HEAD =         859.2556         CONSTANT HEAD =          81.1717

           TOTAL OUT =         859.2556             TOTAL OUT =          81.1717

            IN - OUT =      -6.4087E-03              IN - OUT =      -8.1787E-03

 PERCENT DISCREPANCY =           0.00     PERCENT DISCREPANCY =          -0.01






          TIME SUMMARY AT END OF TIME STEP   7 IN STRESS PERIOD    3
                    SECONDS     MINUTES      HOURS       DAYS        YEARS
                    -----------------------------------------------------------
   TIME STEP LENGTH  8640.0      144.00      2.4000     0.10000     2.73785E-04
 STRESS PERIOD TIME  60480.      1008.0      16.800     0.70000     1.91650E-03
         TOTAL TIME 2.33280E+05  3888.0      64.800      2.7000     7.39220E-03
1
 
 SOLVING FOR HEAD 

 OUTPUT CONTROL FOR STRESS PERIOD    3   TIME STEP   8
    PRINT BUDGET
    SAVE HEAD FOR ALL LAYERS
    SAVE BUDGET
 UBUDSV SAVING "         STORAGE" ON UNIT 40 AT TIME STEP  8, STRESS PERIOD    3
 UBUDSV SAVING "   CONSTANT HEAD" ON UNIT 40 AT TIME STEP  8, STRESS PERIOD    3
 UBUDSV SAVING "FLOW RIGHT FACE " ON UNIT 40 AT TIME STEP  8, STRESS PERIOD    3
 UBUDSV SAVING "FLOW FRONT FACE " ON UNIT 40 AT TIME STEP  8, STRESS PERIOD    3

 HEAD WILL BE SAVED ON UNIT    3 AT END OF TIME STEP   8, STRESS PERIOD    3
1
  VOLUMETRIC BUDGET FOR ENTIRE MODEL AT END OF TIME STEP  8 IN STRESS PERIOD   3
  ------------------------------------------------------------------------------

     CUMULATIVE VOLUMES      L**3       RATES FOR THIS TIME STEP      L**3/T
     ------------------                 ------------------------

           IN:                                      IN:
           ---                                      ---
             STORAGE =         823.8404               STORAGE =          69.2900
       CONSTANT HEAD =          43.0123         CONSTANT HEAD =           6.7448

            TOTAL IN =         866.8527              TOTAL IN =          76.0348

          OUT:                                     OUT:
          ----                                     ----
             STORAGE =           0.0000               STORAGE =           0.0000
       CONSTANT HEAD =         866.8598         CONSTANT HEAD =          76.0421

           TOTAL OUT =         866.8598             TOTAL OUT =          76.0421

            IN - OUT =      -7.0801E-03              IN - OUT =      -7.2250E-03

 PERCENT DISCREPANCY =           0.00     PERCENT DISCREPANCY =          -0.01






          TIME SUMMARY AT END OF TIME STEP   8 IN STRESS PERIOD    3
                    SECONDS     MINUTES      HOURS       DAYS        YEARS
                    -----------------------------------------------------------
   TIME STEP LENGTH  8640.0      144.00      2.4000     0.10000     2.73785E-04
 STRESS PERIOD TIME  69120.      1152.0      19.200     0.80000     2.19028E-03
         TOTAL TIME 2.41920E+05  4032.0      67.200      2.8000     7.66598E-03
1
 
 SOLVING FOR HEAD 

 OUTPUT CONTROL FOR STRESS PERIOD    3   TIME STEP   9
    PRINT BUDGET
    SAVE HEAD FOR ALL LAYERS
    SAVE BUDGET
 UBUDSV SAVING "         STORAGE" ON UNIT 40 AT TIME STEP  9, STRESS PERIOD    3
 UBUDSV SAVING "   CONSTANT HEAD" ON UNIT 40 AT TIME STEP  9, STRESS PERIOD    3
 UBUDSV SAVING "FLOW RIGHT FACE " ON UNIT 40 AT TIME STEP  9, STRESS PERIOD    3
 UBUDSV SAVING "FLOW FRONT FACE " ON UNIT 40 AT TIME STEP  9, STRESS PERIOD    3

 HEAD WILL BE SAVED ON UNIT    3 AT END OF TIME STEP   9, STRESS PERIOD    3
1
  VOLUMETRIC BUDGET FOR ENTIRE MODEL AT END OF TIME STEP  9 IN STRESS PERIOD   3
  ------------------------------------------------------------------------------

     CUMULATIVE VOLUMES      L**3       RATES FOR THIS TIME STEP      L**3/T
     ------------------                 ------------------------

           IN:                                      IN:
           ---                                      ---
             STORAGE =         830.4130               STORAGE =          65.7258
       CONSTANT HEAD =          43.5182         CONSTANT HEAD =           5.0591

            TOTAL IN =         873.9312              TOTAL IN =          70.7849

          OUT:                                     OUT:
          ----                                     ----
             STORAGE =           0.0000               STORAGE =           0.0000
       CONSTANT HEAD =         873.9387         CONSTANT HEAD =          70.7884

           TOTAL OUT =         873.9387             TOTAL OUT =          70.7884

            IN - OUT =      -7.5073E-03              IN - OUT =      -3.4790E-03

 PERCENT DISCREPANCY =           0.00     PERCENT DISCREPANCY =           0.00






          TIME SUMMARY AT END OF TIME STEP   9 IN STRESS PERIOD    3
                    SECONDS     MINUTES      HOURS       DAYS        YEARS
                    -----------------------------------------------------------
   TIME STEP LENGTH  8640.0      144.00      2.4000     0.10000     2.73785E-04
 STRESS PERIOD TIME  77760.      1296.0      21.600     0.90000     2.46407E-03
         TOTAL TIME 2.50560E+05  4176.0      69.600      2.9000     7.93977E-03
1
 
 SOLVING FOR HEAD 

 CONSTANT-HEAD CELL WENT DRY -- SIMULATION ABORTED
 -1.192092895507812E-007  0.000000000000000E+000 -1.1920929E-07
 LAYER=  1 ROW=   10 COLUMN=    1 ITERATION=  1 TIME STEP= 10 STRESS PERIOD=   3
